
  MOE2020           3D

 73 78  0  0  1  0  0  0  0  0999 V2000
   -4.1920    1.1160    0.7430 O   0  0  0  0  0  0  0  0  0  0  0  0
   -2.9740    0.9350    0.7160 C   0  0  0  0  0  0  0  0  0  0  0  0
   -2.0250    1.9300    1.4310 C   0  0  2  0  0  0  0  0  0  0  0  0
   -2.3500    3.3710    0.9590 C   0  0  0  0  0  0  0  0  0  0  0  0
   -1.8080    3.7460   -0.4020 C   0  0  0  0  0  0  0  0  0  0  0  0
   -2.4350    3.3050   -1.5760 C   0  0  0  0  0  0  0  0  0  0  0  0
   -1.9220    3.6570   -2.8250 C   0  0  0  0  0  0  0  0  0  0  0  0
   -0.7900    4.4550   -2.9060 C   0  0  0  0  0  0  0  0  0  0  0  0
   -0.3320    4.7880   -4.1460 O   0  0  0  0  0  0  0  0  0  0  0  0
   -0.1550    4.9070   -1.7560 C   0  0  0  0  0  0  0  0  0  0  0  0
   -0.6650    4.5530   -0.5040 C   0  0  0  0  0  0  0  0  0  0  0  0
   -0.5830    1.6090    1.4430 N   0  0  0  0  0  0  0  0  0  0  0  0
    0.2340    2.3040    2.3130 C   0  0  0  0  0  0  0  0  0  0  0  0
    1.7060    2.0450    2.1990 C   0  0  0  0  0  0  0  0  0  0  0  0
    1.9160    0.6040    1.8110 C   0  0  0  0  0  0  0  0  0  0  0  0
    1.3190    0.3740    0.5050 N   0  0  0  0  0  0  0  0  0  0  0  0
    1.9880   -0.0810   -0.6170 C   0  0  0  0  0  0  0  0  0  0  0  0
    3.2690   -0.5070   -0.3990 N   0  0  0  0  0  0  0  0  0  0  0  0
    4.0750   -0.9690   -1.5090 C   0  0  0  0  0  0  0  0  0  0  0  0
    5.4890   -1.2220   -1.0540 C   0  0  0  0  0  0  0  0  0  0  0  0
    6.3150   -0.1500   -0.6790 C   0  0  0  0  0  0  0  0  0  0  0  0
    7.6150   -0.3780   -0.2290 C   0  0  0  0  0  0  0  0  0  0  0  0
    8.1060   -1.6810   -0.1570 C   0  0  0  0  0  0  0  0  0  0  0  0
    7.2970   -2.7530   -0.5290 C   0  0  0  0  0  0  0  0  0  0  0  0
    5.9940   -2.5270   -0.9730 C   0  0  0  0  0  0  0  0  0  0  0  0
    1.4750   -0.0940   -1.7310 O   0  0  0  0  0  0  0  0  0  0  0  0
   -0.1920    3.1130    3.1350 O   0  0  0  0  0  0  0  0  0  0  0  0
   -0.0700    0.7970    0.3360 C   0  0  1  0  0  0  0  0  0  0  0  0
   -0.9860   -0.4390    0.1550 C   0  0  0  0  0  0  0  0  0  0  0  0
   -2.4050   -0.1220    0.0240 N   0  0  0  0  0  0  0  0  0  0  0  0
   -3.2680   -1.1210   -0.6090 C   0  0  0  0  0  0  0  0  0  0  0  0
   -3.3440   -2.4130    0.1810 C   0  0  0  0  0  0  0  0  0  0  0  0
   -4.0830   -2.3840    1.3820 C   0  0  0  0  0  0  0  0  0  0  0  0
   -4.2060   -3.5150    2.1750 C   0  0  0  0  0  0  0  0  0  0  0  0
   -3.5940   -4.7020    1.7780 C   0  0  0  0  0  0  0  0  0  0  0  0
   -2.8550   -4.7760    0.5860 C   0  0  0  0  0  0  0  0  0  0  0  0
   -2.2610   -5.9960    0.2120 C   0  0  0  0  0  0  0  0  0  0  0  0
   -1.5270   -6.1090   -0.9720 C   0  0  0  0  0  0  0  0  0  0  0  0
   -1.3720   -4.9990   -1.7900 C   0  0  0  0  0  0  0  0  0  0  0  0
   -1.9490   -3.7760   -1.4240 C   0  0  0  0  0  0  0  0  0  0  0  0
   -2.7130   -3.6270   -0.2360 C   0  0  0  0  0  0  0  0  0  0  0  0
   -2.3360    1.8710    2.4840 H   0  0  0  0  0  0  0  0  0  0  0  0
   -1.9740    4.0940    1.6950 H   0  0  0  0  0  0  0  0  0  0  0  0
   -3.4370    3.5330    0.9500 H   0  0  0  0  0  0  0  0  0  0  0  0
   -3.3350    2.6920   -1.5330 H   0  0  0  0  0  0  0  0  0  0  0  0
   -2.4110    3.3160   -3.7340 H   0  0  0  0  0  0  0  0  0  0  0  0
    0.4410    5.3670   -4.0420 H   0  0  0  0  0  0  0  0  0  0  0  0
    0.7210    5.5420   -1.8110 H   0  0  0  0  0  0  0  0  0  0  0  0
   -0.1680    4.9220    0.3930 H   0  0  0  0  0  0  0  0  0  0  0  0
    2.1740    2.2380    3.1710 H   0  0  0  0  0  0  0  0  0  0  0  0
    2.1290    2.7370    1.4630 H   0  0  0  0  0  0  0  0  0  0  0  0
    2.9860    0.3860    1.8170 H   0  0  0  0  0  0  0  0  0  0  0  0
    1.4340   -0.0810    2.5200 H   0  0  0  0  0  0  0  0  0  0  0  0
    3.4060   -1.0220    0.4570 H   0  0  0  0  0  0  0  0  0  0  0  0
    4.0630   -0.2210   -2.3080 H   0  0  0  0  0  0  0  0  0  0  0  0
    3.6150   -1.8800   -1.9070 H   0  0  0  0  0  0  0  0  0  0  0  0
    5.9420    0.8700   -0.7320 H   0  0  0  0  0  0  0  0  0  0  0  0
    8.2440    0.4600    0.0570 H   0  0  0  0  0  0  0  0  0  0  0  0
    9.1220   -1.8630    0.1870 H   0  0  0  0  0  0  0  0  0  0  0  0
    7.6830   -3.7690   -0.4750 H   0  0  0  0  0  0  0  0  0  0  0  0
    5.3770   -3.3790   -1.2550 H   0  0  0  0  0  0  0  0  0  0  0  0
   -0.1260    1.4220   -0.5650 H   0  0  0  0  0  0  0  0  0  0  0  0
   -0.6790   -1.0100   -0.7300 H   0  0  0  0  0  0  0  0  0  0  0  0
   -0.8830   -1.1000    1.0280 H   0  0  0  0  0  0  0  0  0  0  0  0
   -4.2870   -0.7310   -0.7170 H   0  0  0  0  0  0  0  0  0  0  0  0
   -2.9110   -1.2630   -1.6300 H   0  0  0  0  0  0  0  0  0  0  0  0
   -4.5670   -1.4590    1.7040 H   0  0  0  0  0  0  0  0  0  0  0  0
   -4.7820   -3.4720    3.0990 H   0  0  0  0  0  0  0  0  0  0  0  0
   -3.7070   -5.5800    2.4080 H   0  0  0  0  0  0  0  0  0  0  0  0
   -2.3710   -6.8760    0.8410 H   0  0  0  0  0  0  0  0  0  0  0  0
   -1.0770   -7.0620   -1.2520 H   0  0  0  0  0  0  0  0  0  0  0  0
   -0.8040   -5.0790   -2.7170 H   0  0  0  0  0  0  0  0  0  0  0  0
   -1.7880   -2.9410   -2.0990 H   0  0  0  0  0  0  0  0  0  0  0  0
  1  2  2  0  0  0  0
  2  3  1  0  0  0  0
  2 30  1  0  0  0  0
  3  4  1  0  0  0  0
  3 12  1  0  0  0  0
  3 42  1  0  0  0  0
  4  5  1  0  0  0  0
  4 43  1  0  0  0  0
  4 44  1  0  0  0  0
  5  6  1  0  0  0  0
  5 11  2  0  0  0  0
  6  7  2  0  0  0  0
  6 45  1  0  0  0  0
  7  8  1  0  0  0  0
  7 46  1  0  0  0  0
  8  9  1  0  0  0  0
  8 10  2  0  0  0  0
  9 47  1  0  0  0  0
 10 11  1  0  0  0  0
 10 48  1  0  0  0  0
 11 49  1  0  0  0  0
 12 13  1  0  0  0  0
 12 28  1  0  0  0  0
 13 14  1  0  0  0  0
 13 27  2  0  0  0  0
 14 15  1  0  0  0  0
 14 50  1  0  0  0  0
 14 51  1  0  0  0  0
 15 16  1  0  0  0  0
 15 52  1  0  0  0  0
 15 53  1  0  0  0  0
 16 17  1  0  0  0  0
 16 28  1  0  0  0  0
 17 18  1  0  0  0  0
 17 26  2  0  0  0  0
 18 19  1  0  0  0  0
 18 54  1  0  0  0  0
 19 20  1  0  0  0  0
 19 55  1  0  0  0  0
 19 56  1  0  0  0  0
 20 21  1  0  0  0  0
 20 25  2  0  0  0  0
 21 22  2  0  0  0  0
 21 57  1  0  0  0  0
 22 23  1  0  0  0  0
 22 58  1  0  0  0  0
 23 24  2  0  0  0  0
 23 59  1  0  0  0  0
 24 25  1  0  0  0  0
 24 60  1  0  0  0  0
 25 61  1  0  0  0  0
 28 29  1  0  0  0  0
 28 62  1  0  0  0  0
 29 30  1  0  0  0  0
 29 63  1  0  0  0  0
 29 64  1  0  0  0  0
 30 31  1  0  0  0  0
 31 32  1  0  0  0  0
 31 65  1  0  0  0  0
 31 66  1  0  0  0  0
 32 33  2  0  0  0  0
 32 41  1  0  0  0  0
 33 34  1  0  0  0  0
 33 67  1  0  0  0  0
 34 35  2  0  0  0  0
 34 68  1  0  0  0  0
 35 36  1  0  0  0  0
 35 69  1  0  0  0  0
 36 37  2  0  0  0  0
 36 41  1  0  0  0  0
 37 38  1  0  0  0  0
 37 70  1  0  0  0  0
 38 39  2  0  0  0  0
 38 71  1  0  0  0  0
 39 40  1  0  0  0  0
 39 72  1  0  0  0  0
 40 41  2  0  0  0  0
 40 73  1  0  0  0  0
M  END
$$$$
