Untitled Document
  MOE2019           3D

102108  0  0  1  0  0  0  0  0999 V2000
   -2.3180    2.3340   -0.1370 N   0  0  0  0  0  0  0  0  0  0  0  0
   -3.8010    2.3690   -0.0910 C   0  0  0  0  0  0  0  0  0  0  0  0
   -4.1540    3.3120    0.3010 H   0  0  0  0  0  0  0  0  0  0  0  0
   -4.1610    2.1930   -1.0950 H   0  0  0  0  0  0  0  0  0  0  0  0
   -4.3650    1.2500    0.7700 C   0  0  0  0  0  0  0  0  0  0  0  0
   -3.9390   -0.0090    0.5830 N   0  0  0  0  0  0  0  0  0  0  0  0
   -2.6080   -0.3300    0.0410 C   0  0  1  0  0  0  0  0  0  0  0  0
   -1.8630    0.8780   -0.4020 N   0  0  0  0  0  0  0  0  0  0  0  0
   -4.7210   -1.1720    1.0620 C   0  0  2  0  0  0  0  0  0  0  0  0
   -3.8600   -2.3430    1.6230 C   0  0  0  0  0  0  0  0  0  0  0  0
   -2.5150   -2.2550    1.6130 N   0  0  0  0  0  0  0  0  0  0  0  0
   -1.8260   -0.9970    1.2080 C   0  0  0  0  0  0  0  0  0  0  0  0
   -1.8280   -0.3340    2.0570 H   0  0  0  0  0  0  0  0  0  0  0  0
   -0.8240   -1.2120    0.8660 H   0  0  0  0  0  0  0  0  0  0  0  0
   -1.6680   -3.3900    2.0640 C   0  0  0  0  0  0  0  0  0  0  0  0
   -0.9790   -3.0470    2.8250 H   0  0  0  0  0  0  0  0  0  0  0  0
   -2.2630   -4.2280    2.3990 H   0  0  0  0  0  0  0  0  0  0  0  0
   -0.8750   -3.8290    0.8450 C   0  0  0  0  0  0  0  0  0  0  0  0
   -1.5150   -4.4600   -0.2210 C   0  0  0  0  0  0  0  0  0  0  0  0
   -2.5540   -4.6620   -0.1710 H   0  0  0  0  0  0  0  0  0  0  0  0
   -0.7880   -4.8120   -1.3530 C   0  0  0  0  0  0  0  0  0  0  0  0
   -1.2570   -5.2890   -2.1750 H   0  0  0  0  0  0  0  0  0  0  0  0
    0.5620   -4.5160   -1.3750 C   0  0  0  0  0  0  0  0  0  0  0  0
    1.1600   -4.7650   -2.2100 H   0  0  0  0  0  0  0  0  0  0  0  0
    1.1380   -3.8850   -0.2670 C   0  0  0  0  0  0  0  0  0  0  0  0
    0.4330   -3.5540    0.8190 N   0  0  0  0  0  0  0  0  0  0  0  0
   -5.6060   -1.7240   -0.0820 C   0  0  0  0  0  0  0  0  0  0  0  0
   -4.9750   -2.1430   -0.8660 H   0  0  0  0  0  0  0  0  0  0  0  0
   -6.2380   -2.5250    0.3040 H   0  0  0  0  0  0  0  0  0  0  0  0
   -6.4940   -0.6160   -0.6310 C   0  0  0  0  0  0  0  0  0  0  0  0
   -6.1860    0.0530   -1.8200 C   0  0  0  0  0  0  0  0  0  0  0  0
   -6.9750    1.0740   -2.3300 C   0  0  0  0  0  0  0  0  0  0  0  0
   -6.7210    1.5620   -3.2340 H   0  0  0  0  0  0  0  0  0  0  0  0
   -8.1100    1.4360   -1.6180 C   0  0  0  0  0  0  0  0  0  0  0  0
   -8.4540    0.7960   -0.4280 C   0  0  0  0  0  0  0  0  0  0  0  0
   -9.3210    1.0860    0.1070 H   0  0  0  0  0  0  0  0  0  0  0  0
   -7.6440   -0.2290    0.0620 C   0  0  0  0  0  0  0  0  0  0  0  0
   -7.9020   -0.7090    0.9720 H   0  0  0  0  0  0  0  0  0  0  0  0
    2.4890   -3.5810   -0.2650 N   0  0  0  0  0  0  0  0  0  0  0  0
   -8.8930    2.4370   -2.0990 O   0  0  0  0  0  0  0  0  0  0  0  0
   -9.6460    2.6030   -1.5010 H   0  0  0  0  0  0  0  0  0  0  0  0
   -5.2710    1.4850    1.5670 O   0  0  0  0  0  0  0  0  0  0  0  0
   -1.6870    3.0590    1.0070 C   0  0  0  0  0  0  0  0  0  0  0  0
   -2.2850    3.9210    1.2720 H   0  0  0  0  0  0  0  0  0  0  0  0
   -0.6860    3.3520    0.7250 H   0  0  0  0  0  0  0  0  0  0  0  0
   -0.7820    0.6350   -1.2130 C   0  0  0  0  0  0  0  0  0  0  0  0
   -0.1310    1.7410   -1.6440 N   0  0  0  0  0  0  0  0  0  0  0  0
   -0.5620    2.5890   -1.2550 H   0  0  0  0  0  0  0  0  0  0  0  0
   -0.3940   -0.5000   -1.5060 O   0  0  0  0  0  0  0  0  0  0  0  0
    1.3180    1.7070   -1.7210 C   0  0  0  0  0  0  0  0  0  0  0  0
    1.6650    0.7280   -2.0320 H   0  0  0  0  0  0  0  0  0  0  0  0
    1.6590    2.4960   -2.3780 H   0  0  0  0  0  0  0  0  0  0  0  0
    1.7710    1.9870   -0.3000 C   0  0  0  0  0  0  0  0  0  0  0  0
    2.1400    3.2750    0.0890 C   0  0  0  0  0  0  0  0  0  0  0  0
    2.1230    4.0690   -0.6140 H   0  0  0  0  0  0  0  0  0  0  0  0
    2.5120    3.5310    1.4060 C   0  0  0  0  0  0  0  0  0  0  0  0
    2.7780    4.5150    1.7000 H   0  0  0  0  0  0  0  0  0  0  0  0
    2.5120    2.5030    2.3440 C   0  0  0  0  0  0  0  0  0  0  0  0
    2.7770    2.7040    3.3520 H   0  0  0  0  0  0  0  0  0  0  0  0
    2.1450    1.2160    1.9630 C   0  0  0  0  0  0  0  0  0  0  0  0
    2.1310    0.4320    2.6780 H   0  0  0  0  0  0  0  0  0  0  0  0
    1.7810    0.9600    0.6450 C   0  0  0  0  0  0  0  0  0  0  0  0
    1.4970   -0.0230    0.3600 H   0  0  0  0  0  0  0  0  0  0  0  0
   -4.4200   -3.3700    1.9980 O   0  0  0  0  0  0  0  0  0  0  0  0
   -5.0700   -0.2870   -2.5140 F   0  0  0  0  0  0  0  0  0  0  0  0
   -1.5740    2.1520    2.2100 C   0  0  0  0  0  0  0  0  0  0  0  0
   -0.7130    1.5350    2.2180 H   0  0  0  0  0  0  0  0  0  0  0  0
   -2.4640    2.1260    3.2130 C   0  0  0  0  0  0  0  0  0  0  0  0
   -2.3540    1.4840    4.0500 H   0  0  0  0  0  0  0  0  0  0  0  0
   -3.3320    2.7370    3.2240 H   0  0  0  0  0  0  0  0  0  0  0  0
    3.1370   -2.9030   -1.3990 C   0  0  0  0  0  0  0  0  0  0  0  0
    3.5750   -3.5810   -2.1180 H   0  0  0  0  0  0  0  0  0  0  0  0
    2.5150   -2.1350   -1.8400 H   0  0  0  0  0  0  0  0  0  0  0  0
    4.1670   -2.3440   -0.3640 C   0  0  0  0  0  0  0  0  0  0  0  0
    5.0850   -2.9140   -0.3120 H   0  0  0  0  0  0  0  0  0  0  0  0
    3.1360   -2.7260    0.7480 C   0  0  0  0  0  0  0  0  0  0  0  0
    3.5740   -3.2800    1.5670 H   0  0  0  0  0  0  0  0  0  0  0  0
    2.5210   -1.8950    1.0630 H   0  0  0  0  0  0  0  0  0  0  0  0
    4.4300   -0.8730   -0.4980 N   0  0  0  0  0  0  0  0  0  0  0  0
    5.2520   -0.6110   -1.7000 C   0  0  0  0  0  0  0  0  0  0  0  0
    6.2280   -1.0670   -1.6030 H   0  0  0  0  0  0  0  0  0  0  0  0
    4.7300   -0.9780   -2.5750 H   0  0  0  0  0  0  0  0  0  0  0  0
    5.3820    0.9290   -1.8570 C   0  0  0  0  0  0  0  0  0  0  0  0
    5.9840    1.1290   -2.7350 H   0  0  0  0  0  0  0  0  0  0  0  0
    4.3750    1.3140   -1.9690 H   0  0  0  0  0  0  0  0  0  0  0  0
    6.0110    1.5650   -0.6390 N   0  3  0  0  0  0  0  0  0  0  0  0
    5.9790    2.5720   -0.7400 H   0  0  0  0  0  0  0  0  0  0  0  0
    5.2090    1.1860    0.5750 C   0  0  0  0  0  0  0  0  0  0  0  0
    4.2010    1.5650    0.4630 H   0  0  0  0  0  0  0  0  0  0  0  0
    5.6800    1.5780    1.4690 H   0  0  0  0  0  0  0  0  0  0  0  0
    5.1020   -0.3570    0.7180 C   0  0  0  0  0  0  0  0  0  0  0  0
    4.4800   -0.5500    1.5830 H   0  0  0  0  0  0  0  0  0  0  0  0
    6.0850   -0.7960    0.8290 H   0  0  0  0  0  0  0  0  0  0  0  0
    7.4150    1.1450   -0.4660 C   0  0  0  0  0  0  0  0  0  0  0  0
    7.7320    1.3180    0.5580 H   0  0  0  0  0  0  0  0  0  0  0  0
    7.5690    0.1180   -0.7730 H   0  0  0  0  0  0  0  0  0  0  0  0
    8.2210    2.0820   -1.3690 C   0  0  0  0  0  0  0  0  0  0  0  0
    7.9460    1.9290   -2.4130 H   0  0  0  0  0  0  0  0  0  0  0  0
    9.2750    1.8340   -1.2360 H   0  0  0  0  0  0  0  0  0  0  0  0
    8.0530    3.1160   -1.0650 H   0  0  0  0  0  0  0  0  0  0  0  0
   -2.6930   -1.0320   -0.7800 H   0  0  0  0  0  0  0  0  0  0  0  0
   -5.3750   -0.8650    1.8790 H   0  0  0  0  0  0  0  0  0  0  0  0
  1  2  1  0  0  0  0
  1  8  1  0  0  0  0
  1 43  1  0  0  0  0
  2  3  1  0  0  0  0
  2  4  1  0  0  0  0
  2  5  1  0  0  0  0
  5  6  1  0  0  0  0
  5 42  2  0  0  0  0
  6  7  1  0  0  0  0
  6  9  1  0  0  0  0
  7  8  1  0  0  0  0
  7 12  1  0  0  0  0
  7101  1  0  0  0  0
  8 46  1  0  0  0  0
  9 10  1  0  0  0  0
  9 27  1  0  0  0  0
  9102  1  0  0  0  0
 10 11  1  0  0  0  0
 10 64  2  0  0  0  0
 11 12  1  0  0  0  0
 11 15  1  0  0  0  0
 12 13  1  0  0  0  0
 12 14  1  0  0  0  0
 15 16  1  0  0  0  0
 15 17  1  0  0  0  0
 15 18  1  0  0  0  0
 18 19  1  0  0  0  0
 18 26  2  0  0  0  0
 19 20  1  0  0  0  0
 19 21  2  0  0  0  0
 21 22  1  0  0  0  0
 21 23  1  0  0  0  0
 23 24  1  0  0  0  0
 23 25  2  0  0  0  0
 25 26  1  0  0  0  0
 25 39  1  0  0  0  0
 27 28  1  0  0  0  0
 27 29  1  0  0  0  0
 27 30  1  0  0  0  0
 30 31  2  0  0  0  0
 30 37  1  0  0  0  0
 31 32  1  0  0  0  0
 31 65  1  0  0  0  0
 32 33  1  0  0  0  0
 32 34  2  0  0  0  0
 34 35  1  0  0  0  0
 34 40  1  0  0  0  0
 35 36  1  0  0  0  0
 35 37  2  0  0  0  0
 37 38  1  0  0  0  0
 39 71  1  0  0  0  0
 39 76  1  0  0  0  0
 40 41  1  0  0  0  0
 43 44  1  0  0  0  0
 43 45  1  0  0  0  0
 43 66  1  0  0  0  0
 46 47  1  0  0  0  0
 46 49  2  0  0  0  0
 47 48  1  0  0  0  0
 47 50  1  0  0  0  0
 50 51  1  0  0  0  0
 50 52  1  0  0  0  0
 50 53  1  0  0  0  0
 53 54  1  0  0  0  0
 53 62  2  0  0  0  0
 54 55  1  0  0  0  0
 54 56  2  0  0  0  0
 56 57  1  0  0  0  0
 56 58  1  0  0  0  0
 58 59  1  0  0  0  0
 58 60  2  0  0  0  0
 60 61  1  0  0  0  0
 60 62  1  0  0  0  0
 62 63  1  0  0  0  0
 66 67  1  0  0  0  0
 66 68  2  0  0  0  0
 68 69  1  0  0  0  0
 68 70  1  0  0  0  0
 71 72  1  0  0  0  0
 71 73  1  0  0  0  0
 71 74  1  0  0  0  0
 74 75  1  0  0  0  0
 74 76  1  0  0  0  0
 74 79  1  0  0  0  0
 76 77  1  0  0  0  0
 76 78  1  0  0  0  0
 79 80  1  0  0  0  0
 79 91  1  0  0  0  0
 80 81  1  0  0  0  0
 80 82  1  0  0  0  0
 80 83  1  0  0  0  0
 83 84  1  0  0  0  0
 83 85  1  0  0  0  0
 83 86  1  0  0  0  0
 86 87  1  0  0  0  0
 86 88  1  0  0  0  0
 86 94  1  0  0  0  0
 88 89  1  0  0  0  0
 88 90  1  0  0  0  0
 88 91  1  0  0  0  0
 91 92  1  0  0  0  0
 91 93  1  0  0  0  0
 94 95  1  0  0  0  0
 94 96  1  0  0  0  0
 94 97  1  0  0  0  0
 97 98  1  0  0  0  0
 97 99  1  0  0  0  0
 97100  1  0  0  0  0
M  CHG  1  86   1
M  END
$$$$
