3KE8.A Assembly 1 BIOMT operation 1
  MOE2019           3D
OXIDOREDUCTASE
 24 23  0  0  0  0  0  0  0  0999 V2000
  -26.2363    2.1670  -16.4551 O   0  0  0  0  0  0  0  0  0  0  0  0
  -25.6181    1.0120  -18.3799 O   0  5  0  0  0  0  0  0  0  0  0  0
  -24.3924    0.6703  -16.3582 O   0  5  0  0  0  0  0  0  0  0  0  0
  -25.7267    0.8724  -16.9237 P   0  0  0  0  0  0  0  0  0  0  0  0
  -26.6544   -0.2628  -16.5605 O   0  0  0  0  0  0  0  0  0  0  0  0
  -27.3478   -2.6001  -17.1119 O   0  0  0  0  0  0  0  0  0  0  0  0
  -24.9323   -2.1594  -16.9610 O   0  5  0  0  0  0  0  0  0  0  0  0
  -26.2855   -1.7371  -16.5231 P   0  0  0  0  0  0  0  0  0  0  0  0
  -26.2386   -2.2856  -15.0355 O   0  0  0  0  0  0  0  0  0  0  0  0
  -27.3971   -2.3199  -14.2028 C   0  0  0  0  0  0  0  0  0  0  0  0
  -27.1661   -2.9041  -13.3261 H   0  0  0  0  0  0  0  0  0  0  0  0
  -28.2482   -2.6952  -14.7513 H   0  0  0  0  0  0  0  0  0  0  0  0
  -27.6056   -0.9105  -13.7177 C   0  0  0  0  0  0  0  0  0  0  0  0
  -26.7189   -0.4551  -13.3558 H   0  0  0  0  0  0  0  0  0  0  0  0
  -28.7827   -0.2654  -13.6451 C   0  0  0  0  0  0  0  0  0  0  0  0
  -28.8229    1.1120  -13.0100 C   0  0  0  0  0  0  0  0  0  0  0  0
  -29.0181    1.8569  -13.7713 H   0  0  0  0  0  0  0  0  0  0  0  0
  -27.9017    1.2775  -12.4690 H   0  0  0  0  0  0  0  0  0  0  0  0
  -30.1005   -0.8637  -14.1064 C   0  0  0  0  0  0  0  0  0  0  0  0
  -30.8029   -0.0510  -14.2351 H   0  0  0  0  0  0  0  0  0  0  0  0
  -30.4249   -1.5213  -13.3103 H   0  0  0  0  0  0  0  0  0  0  0  0
  -29.9371   -1.3874  -15.0345 H   0  0  0  0  0  0  0  0  0  0  0  0
  -29.8880    1.1095  -12.0547 O   0  0  0  0  0  0  0  0  0  0  0  0
  -29.5820    0.5555  -11.2236 H   0  0  0  0  0  0  0  0  0  0  0  0
  1  4  2  0  0  0  0
  2  4  1  0  0  0  0
  3  4  1  0  0  0  0
  4  5  1  0  0  0  0
  5  8  1  0  0  0  0
  6  8  2  0  0  0  0
  7  8  1  0  0  0  0
  8  9  1  0  0  0  0
  9 10  1  0  0  0  0
 10 11  1  0  0  0  0
 10 12  1  0  0  0  0
 10 13  1  0  0  0  0
 13 14  1  0  0  0  0
 13 15  2  0  0  0  0
 15 16  1  0  0  0  0
 15 19  1  0  0  0  0
 16 17  1  0  0  0  0
 16 18  1  0  0  0  0
 16 23  1  0  0  0  0
 19 20  1  0  0  0  0
 19 21  1  0  0  0  0
 19 22  1  0  0  0  0
 23 24  1  0  0  0  0
M  CHG  1   2  -1
M  CHG  1   3  -1
M  CHG  1   7  -1
M  END
$$$$
