PD1-PDL1.sdf
  MOE2019           3D

 78 82  0  0  1  0  0  0  0  0999 V2000
    1.8290    3.7770   -3.2890 C   0  0  0  0  0  0  0  0  0  0  0  0
    1.3120    2.5580   -2.8370 C   0  0  0  0  0  0  0  0  0  0  0  0
   -0.0470    2.4400   -2.5440 C   0  0  0  0  0  0  0  0  0  0  0  0
   -0.9020    3.5490   -2.6500 C   0  0  0  0  0  0  0  0  0  0  0  0
   -0.3580    4.7750   -3.0730 C   0  0  0  0  0  0  0  0  0  0  0  0
    0.9980    4.8890   -3.3900 C   0  0  0  0  0  0  0  0  0  0  0  0
    3.1410    3.9520   -3.6490 O   0  0  0  0  0  0  0  0  0  0  0  0
    3.8090    2.6950   -3.8130 C   0  0  0  0  0  0  0  0  0  0  0  0
    3.4770    1.7570   -2.6630 C   0  0  0  0  0  0  0  0  0  0  0  0
    2.0820    1.4340   -2.6660 O   0  0  0  0  0  0  0  0  0  0  0  0
   -2.3410    3.4230   -2.3530 C   0  0  0  0  0  0  0  0  0  0  0  0
   -3.2490    3.5520   -3.4210 C   0  0  0  0  0  0  0  0  0  0  0  0
   -4.6180    3.4040   -3.2300 C   0  0  0  0  0  0  0  0  0  0  0  0
   -5.1040    3.0930   -1.9660 C   0  0  0  0  0  0  0  0  0  0  0  0
   -4.2330    2.9320   -0.8720 C   0  0  0  0  0  0  0  0  0  0  0  0
   -2.8420    3.1520   -1.0510 C   0  0  0  0  0  0  0  0  0  0  0  0
   -1.9020    3.0630    0.1290 C   0  0  0  0  0  0  0  0  0  0  0  0
   -4.8380    2.5360    0.4630 C   0  0  0  0  0  0  0  0  0  0  0  0
   -5.7710    1.4530    0.2800 O   0  0  0  0  0  0  0  0  0  0  0  0
   -5.3190    0.2960    0.8630 C   0  0  0  0  0  0  0  0  0  0  0  0
   -5.4890    0.1260    2.2390 C   0  0  0  0  0  0  0  0  0  0  0  0
   -5.0460   -1.0450    2.8620 C   0  0  0  0  0  0  0  0  0  0  0  0
   -4.3850   -2.0290    2.1080 C   0  0  0  0  0  0  0  0  0  0  0  0
   -4.2710   -1.8590    0.7150 C   0  0  0  0  0  0  0  0  0  0  0  0
   -4.7600   -0.7120    0.0750 C   0  0  0  0  0  0  0  0  0  0  0  0
   -4.6090   -0.5740   -1.4120 C   0  0  0  0  0  0  0  0  0  0  0  0
   -3.8100   -3.2770    2.7380 C   0  0  0  0  0  0  0  0  0  0  0  0
   -4.7040   -4.4240    2.5590 N   0  0  0  0  0  0  0  0  0  0  0  0
   -5.1900   -1.2910    4.2030 O   0  0  0  0  0  0  0  0  0  0  0  0
   -6.3180   -0.6750    4.8340 C   0  0  0  0  0  0  0  0  0  0  0  0
   -6.6850   -1.4960    6.0480 C   0  0  0  0  0  0  0  0  0  0  0  0
   -6.9860   -2.8600    5.9030 C   0  0  0  0  0  0  0  0  0  0  0  0
   -7.3400   -3.6380    7.0110 C   0  0  0  0  0  0  0  0  0  0  0  0
   -7.4080   -3.0510    8.2760 C   0  0  0  0  0  0  0  0  0  0  0  0
   -7.1230   -1.6940    8.4290 C   0  0  0  0  0  0  0  0  0  0  0  0
   -6.7650   -0.9200    7.3210 C   0  0  0  0  0  0  0  0  0  0  0  0
   -4.0900   -5.6670    3.1170 C   0  0  1  0  0  0  0  0  0  0  0  0
   -5.1540   -6.5600    3.7690 C   0  0  0  0  0  0  0  0  0  0  0  0
   -3.3690   -6.4350    1.9970 C   0  0  0  0  0  0  0  0  0  0  0  0
   -4.0600   -6.2920    0.7510 O   0  0  0  0  0  0  0  0  0  0  0  0
   -5.0320   -7.7350    4.0740 O   0  0  0  0  0  0  0  0  0  0  0  0
   -6.2760   -5.8790    4.1070 O   0  0  0  0  0  0  0  0  0  0  0  0
   -7.6220   -5.0310    6.8300 C   0  0  0  0  0  0  0  0  0  0  0  0
   -7.8230   -6.1560    6.6140 N   0  0  0  0  0  0  0  0  0  0  0  0
   -0.4390    1.4770   -2.2240 H   0  0  0  0  0  0  0  0  0  0  0  0
   -0.9980    5.6500   -3.1660 H   0  0  0  0  0  0  0  0  0  0  0  0
    1.4000    5.8390   -3.7290 H   0  0  0  0  0  0  0  0  0  0  0  0
    4.8850    2.8940   -3.8430 H   0  0  0  0  0  0  0  0  0  0  0  0
    3.5160    2.2660   -4.7790 H   0  0  0  0  0  0  0  0  0  0  0  0
    4.0350    0.8200   -2.7640 H   0  0  0  0  0  0  0  0  0  0  0  0
    3.7300    2.2070   -1.6940 H   0  0  0  0  0  0  0  0  0  0  0  0
   -2.8810    3.7590   -4.4260 H   0  0  0  0  0  0  0  0  0  0  0  0
   -5.3030    3.5060   -4.0680 H   0  0  0  0  0  0  0  0  0  0  0  0
   -6.1750    2.9460   -1.8350 H   0  0  0  0  0  0  0  0  0  0  0  0
   -2.3290    3.5660    1.0030 H   0  0  0  0  0  0  0  0  0  0  0  0
   -0.9490    3.5700   -0.0530 H   0  0  0  0  0  0  0  0  0  0  0  0
   -1.7020    2.0140    0.3710 H   0  0  0  0  0  0  0  0  0  0  0  0
   -4.0760    2.2880    1.2090 H   0  0  0  0  0  0  0  0  0  0  0  0
   -5.4030    3.3910    0.8540 H   0  0  0  0  0  0  0  0  0  0  0  0
   -5.9590    0.9240    2.8010 H   0  0  0  0  0  0  0  0  0  0  0  0
   -3.7950   -2.6400    0.1210 H   0  0  0  0  0  0  0  0  0  0  0  0
   -4.6180   -1.5570   -1.8950 H   0  0  0  0  0  0  0  0  0  0  0  0
   -5.4420   -0.0090   -1.8430 H   0  0  0  0  0  0  0  0  0  0  0  0
   -3.6670   -0.0750   -1.6530 H   0  0  0  0  0  0  0  0  0  0  0  0
   -2.8380   -3.4780    2.2680 H   0  0  0  0  0  0  0  0  0  0  0  0
   -3.6010   -3.1080    3.8020 H   0  0  0  0  0  0  0  0  0  0  0  0
   -5.5580   -4.2420    3.0980 H   0  0  0  0  0  0  0  0  0  0  0  0
   -6.0480    0.3470    5.1280 H   0  0  0  0  0  0  0  0  0  0  0  0
   -7.1950   -0.6450    4.1740 H   0  0  0  0  0  0  0  0  0  0  0  0
   -6.9370   -3.3150    4.9140 H   0  0  0  0  0  0  0  0  0  0  0  0
   -7.6830   -3.6430    9.1470 H   0  0  0  0  0  0  0  0  0  0  0  0
   -7.1810   -1.2340    9.4130 H   0  0  0  0  0  0  0  0  0  0  0  0
   -6.5470    0.1370    7.4620 H   0  0  0  0  0  0  0  0  0  0  0  0
   -3.3910   -5.4370    3.9310 H   0  0  0  0  0  0  0  0  0  0  0  0
   -2.3670   -6.0220    1.8520 H   0  0  0  0  0  0  0  0  0  0  0  0
   -3.2690   -7.5030    2.2090 H   0  0  0  0  0  0  0  0  0  0  0  0
   -4.5220   -5.4270    0.8220 H   0  0  0  0  0  0  0  0  0  0  0  0
   -6.8310   -6.5350    4.5940 H   0  0  0  0  0  0  0  0  0  0  0  0
  1  2  2  0  0  0  0
  1  6  1  0  0  0  0
  1  7  1  0  0  0  0
  2  3  1  0  0  0  0
  2 10  1  0  0  0  0
  3  4  2  0  0  0  0
  3 45  1  0  0  0  0
  4  5  1  0  0  0  0
  4 11  1  0  0  0  0
  5  6  2  0  0  0  0
  5 46  1  0  0  0  0
  6 47  1  0  0  0  0
  7  8  1  0  0  0  0
  8  9  1  0  0  0  0
  8 48  1  0  0  0  0
  8 49  1  0  0  0  0
  9 10  1  0  0  0  0
  9 50  1  0  0  0  0
  9 51  1  0  0  0  0
 11 12  1  0  0  0  0
 11 16  2  0  0  0  0
 12 13  2  0  0  0  0
 12 52  1  0  0  0  0
 13 14  1  0  0  0  0
 13 53  1  0  0  0  0
 14 15  2  0  0  0  0
 14 54  1  0  0  0  0
 15 16  1  0  0  0  0
 15 18  1  0  0  0  0
 16 17  1  0  0  0  0
 17 55  1  0  0  0  0
 17 56  1  0  0  0  0
 17 57  1  0  0  0  0
 18 19  1  0  0  0  0
 18 58  1  0  0  0  0
 18 59  1  0  0  0  0
 19 20  1  0  0  0  0
 20 21  1  0  0  0  0
 20 25  2  0  0  0  0
 21 22  2  0  0  0  0
 21 60  1  0  0  0  0
 22 23  1  0  0  0  0
 22 29  1  0  0  0  0
 23 24  2  0  0  0  0
 23 27  1  0  0  0  0
 24 25  1  0  0  0  0
 24 61  1  0  0  0  0
 25 26  1  0  0  0  0
 26 62  1  0  0  0  0
 26 63  1  0  0  0  0
 26 64  1  0  0  0  0
 27 28  1  0  0  0  0
 27 65  1  0  0  0  0
 27 66  1  0  0  0  0
 28 37  1  0  0  0  0
 28 67  1  0  0  0  0
 29 30  1  0  0  0  0
 30 31  1  0  0  0  0
 30 68  1  0  0  0  0
 30 69  1  0  0  0  0
 31 32  2  0  0  0  0
 31 36  1  0  0  0  0
 32 33  1  0  0  0  0
 32 70  1  0  0  0  0
 33 34  2  0  0  0  0
 33 43  1  0  0  0  0
 34 35  1  0  0  0  0
 34 71  1  0  0  0  0
 35 36  2  0  0  0  0
 35 72  1  0  0  0  0
 36 73  1  0  0  0  0
 37 38  1  0  0  0  0
 37 39  1  0  0  0  0
 37 74  1  0  0  0  0
 38 41  2  0  0  0  0
 38 42  1  0  0  0  0
 39 40  1  0  0  0  0
 39 75  1  0  0  0  0
 39 76  1  0  0  0  0
 40 77  1  0  0  0  0
 42 78  1  0  0  0  0
 43 44  3  0  0  0  0
M  END
$$$$
PD1-PDL1.sdf
  MOE2019           3D

 60 62  0  0  0  0  0  0  0  0999 V2000
    2.0280    4.7510   -3.3950 C   0  0  0  0  0  0  0  0  0  0  0  0
    1.5490    4.7930   -2.0870 C   0  0  0  0  0  0  0  0  0  0  0  0
    0.1950    4.5700   -1.8300 C   0  0  0  0  0  0  0  0  0  0  0  0
   -0.6990    4.2990   -2.8790 C   0  0  0  0  0  0  0  0  0  0  0  0
   -0.2020    4.2650   -4.1900 C   0  0  0  0  0  0  0  0  0  0  0  0
    1.1520    4.4870   -4.4470 C   0  0  0  0  0  0  0  0  0  0  0  0
   -2.1270    4.0690   -2.6080 C   0  0  0  0  0  0  0  0  0  0  0  0
   -3.0250    5.1250   -2.8400 C   0  0  0  0  0  0  0  0  0  0  0  0
   -4.3830    4.9870   -2.5730 C   0  0  0  0  0  0  0  0  0  0  0  0
   -4.8680    3.7890   -2.0620 C   0  0  0  0  0  0  0  0  0  0  0  0
   -4.0060    2.7040   -1.8200 C   0  0  0  0  0  0  0  0  0  0  0  0
   -2.6230    2.8340   -2.1140 C   0  0  0  0  0  0  0  0  0  0  0  0
   -1.6700    1.6920   -1.8390 C   0  0  0  0  0  0  0  0  0  0  0  0
   -4.6000    1.4320   -1.2450 C   0  0  0  0  0  0  0  0  0  0  0  0
   -4.0610    1.2330    0.0610 O   0  0  0  0  0  0  0  0  0  0  0  0
   -4.4790    0.0560    0.6470 C   0  0  0  0  0  0  0  0  0  0  0  0
   -3.9560   -0.2190    1.8980 C   0  0  0  0  0  0  0  0  0  0  0  0
   -4.3430   -1.3970    2.5270 C   0  0  0  0  0  0  0  0  0  0  0  0
   -5.2440   -2.2620    1.8940 C   0  0  0  0  0  0  0  0  0  0  0  0
   -5.7060   -1.8900    0.6310 C   0  0  0  0  0  0  0  0  0  0  0  0
   -5.3440   -0.7500    0.0000 N   0  0  0  0  0  0  0  0  0  0  0  0
   -5.6590   -3.5440    2.5670 C   0  0  0  0  0  0  0  0  0  0  0  0
   -4.5690   -4.5230    2.5350 N   0  0  0  0  0  0  0  0  0  0  0  0
   -6.5760   -2.7540   -0.0050 O   0  0  0  0  0  0  0  0  0  0  0  0
   -6.9900   -2.2990   -1.2900 C   0  0  0  0  0  0  0  0  0  0  0  0
   -4.9670   -5.7660    3.2180 C   0  0  0  0  0  0  0  0  0  0  0  0
   -3.8410   -6.8100    3.1510 C   0  0  0  0  0  0  0  0  0  0  0  0
   -2.5750   -6.2430    3.5750 N   0  0  0  0  0  0  0  0  0  0  0  0
   -1.5150   -7.0200    3.9610 C   0  0  0  0  0  0  0  0  0  0  0  0
   -0.2800   -6.2330    4.3070 C   0  0  0  0  0  0  0  0  0  0  0  0
   -1.5450   -8.2450    3.9980 O   0  0  0  0  0  0  0  0  0  0  0  0
    3.0810    4.9250   -3.5950 H   0  0  0  0  0  0  0  0  0  0  0  0
    2.2300    5.0000   -1.2650 H   0  0  0  0  0  0  0  0  0  0  0  0
   -0.1680    4.6080   -0.8050 H   0  0  0  0  0  0  0  0  0  0  0  0
   -0.8740    4.0570   -5.0200 H   0  0  0  0  0  0  0  0  0  0  0  0
    1.5230    4.4550   -5.4680 H   0  0  0  0  0  0  0  0  0  0  0  0
   -2.6560    6.0750   -3.2230 H   0  0  0  0  0  0  0  0  0  0  0  0
   -5.0600    5.8180   -2.7520 H   0  0  0  0  0  0  0  0  0  0  0  0
   -5.9310    3.7060   -1.8430 H   0  0  0  0  0  0  0  0  0  0  0  0
   -1.2750    1.7720   -0.8220 H   0  0  0  0  0  0  0  0  0  0  0  0
   -2.1540    0.7180   -1.9530 H   0  0  0  0  0  0  0  0  0  0  0  0
   -0.8350    1.6820   -2.5460 H   0  0  0  0  0  0  0  0  0  0  0  0
   -5.6920    1.5250   -1.1830 H   0  0  0  0  0  0  0  0  0  0  0  0
   -4.3640    0.5960   -1.9170 H   0  0  0  0  0  0  0  0  0  0  0  0
   -3.2590    0.4660    2.3680 H   0  0  0  0  0  0  0  0  0  0  0  0
   -3.9410   -1.6450    3.5060 H   0  0  0  0  0  0  0  0  0  0  0  0
   -5.9270   -3.3110    3.6060 H   0  0  0  0  0  0  0  0  0  0  0  0
   -6.5620   -3.9570    2.1020 H   0  0  0  0  0  0  0  0  0  0  0  0
   -4.3620   -4.7360    1.5570 H   0  0  0  0  0  0  0  0  0  0  0  0
   -6.1370   -2.2130   -1.9740 H   0  0  0  0  0  0  0  0  0  0  0  0
   -7.5360   -1.3520   -1.2210 H   0  0  0  0  0  0  0  0  0  0  0  0
   -7.6730   -3.0470   -1.7040 H   0  0  0  0  0  0  0  0  0  0  0  0
   -5.1780   -5.5440    4.2710 H   0  0  0  0  0  0  0  0  0  0  0  0
   -5.8730   -6.1890    2.7680 H   0  0  0  0  0  0  0  0  0  0  0  0
   -4.0820   -7.6740    3.7800 H   0  0  0  0  0  0  0  0  0  0  0  0
   -3.7070   -7.1670    2.1240 H   0  0  0  0  0  0  0  0  0  0  0  0
   -2.4770   -5.2380    3.4730 H   0  0  0  0  0  0  0  0  0  0  0  0
    0.3190   -6.7940    5.0290 H   0  0  0  0  0  0  0  0  0  0  0  0
   -0.5440   -5.2680    4.7500 H   0  0  0  0  0  0  0  0  0  0  0  0
    0.3050   -6.0660    3.3990 H   0  0  0  0  0  0  0  0  0  0  0  0
  1  2  1  0  0  0  0
  1  6  2  0  0  0  0
  1 32  1  0  0  0  0
  2  3  2  0  0  0  0
  2 33  1  0  0  0  0
  3  4  1  0  0  0  0
  3 34  1  0  0  0  0
  4  5  2  0  0  0  0
  4  7  1  0  0  0  0
  5  6  1  0  0  0  0
  5 35  1  0  0  0  0
  6 36  1  0  0  0  0
  7  8  1  0  0  0  0
  7 12  2  0  0  0  0
  8  9  2  0  0  0  0
  8 37  1  0  0  0  0
  9 10  1  0  0  0  0
  9 38  1  0  0  0  0
 10 11  2  0  0  0  0
 10 39  1  0  0  0  0
 11 12  1  0  0  0  0
 11 14  1  0  0  0  0
 12 13  1  0  0  0  0
 13 40  1  0  0  0  0
 13 41  1  0  0  0  0
 13 42  1  0  0  0  0
 14 15  1  0  0  0  0
 14 43  1  0  0  0  0
 14 44  1  0  0  0  0
 15 16  1  0  0  0  0
 16 17  1  0  0  0  0
 16 21  2  0  0  0  0
 17 18  2  0  0  0  0
 17 45  1  0  0  0  0
 18 19  1  0  0  0  0
 18 46  1  0  0  0  0
 19 20  2  0  0  0  0
 19 22  1  0  0  0  0
 20 21  1  0  0  0  0
 20 24  1  0  0  0  0
 22 23  1  0  0  0  0
 22 47  1  0  0  0  0
 22 48  1  0  0  0  0
 23 26  1  0  0  0  0
 23 49  1  0  0  0  0
 24 25  1  0  0  0  0
 25 50  1  0  0  0  0
 25 51  1  0  0  0  0
 25 52  1  0  0  0  0
 26 27  1  0  0  0  0
 26 53  1  0  0  0  0
 26 54  1  0  0  0  0
 27 28  1  0  0  0  0
 27 55  1  0  0  0  0
 27 56  1  0  0  0  0
 28 29  1  0  0  0  0
 28 57  1  0  0  0  0
 29 30  1  0  0  0  0
 29 31  2  0  0  0  0
 30 58  1  0  0  0  0
 30 59  1  0  0  0  0
 30 60  1  0  0  0  0
M  END
$$$$
PD1-PDL1.sdf
  MOE2019           3D

 79 84  0  0  1  0  0  0  0  0999 V2000
    1.7980    5.0100   -3.6520 C   0  0  0  0  0  0  0  0  0  0  0  0
    1.5840    4.8070   -2.2880 C   0  0  0  0  0  0  0  0  0  0  0  0
    0.3500    4.3400   -1.8330 C   0  0  0  0  0  0  0  0  0  0  0  0
   -0.6790    4.0390   -2.7380 C   0  0  0  0  0  0  0  0  0  0  0  0
   -0.4380    4.2210   -4.1110 C   0  0  0  0  0  0  0  0  0  0  0  0
    0.7940    4.7020   -4.5660 C   0  0  0  0  0  0  0  0  0  0  0  0
    2.9660    5.5170   -4.1650 O   0  0  0  0  0  0  0  0  0  0  0  0
    3.7610    6.1250   -3.1390 C   0  0  0  0  0  0  0  0  0  0  0  0
    3.8330    5.2270   -1.9140 C   0  0  0  0  0  0  0  0  0  0  0  0
    2.5340    5.0610   -1.3330 O   0  0  0  0  0  0  0  0  0  0  0  0
   -1.9950    3.5900   -2.2520 C   0  0  0  0  0  0  0  0  0  0  0  0
   -2.7930    4.5320   -1.5720 C   0  0  0  0  0  0  0  0  0  0  0  0
   -4.0620    4.2080   -1.1130 C   0  0  0  0  0  0  0  0  0  0  0  0
   -4.5600    2.9280   -1.3170 C   0  0  0  0  0  0  0  0  0  0  0  0
   -3.7910    1.9390   -1.9600 C   0  0  0  0  0  0  0  0  0  0  0  0
   -2.4930    2.2730   -2.4390 C   0  0  0  0  0  0  0  0  0  0  0  0
   -1.6820    1.2340   -3.1810 C   0  0  0  0  0  0  0  0  0  0  0  0
   -4.3880    0.5540   -2.1750 C   0  0  0  0  0  0  0  0  0  0  0  0
   -5.5460    0.3030   -1.3590 O   0  0  0  0  0  0  0  0  0  0  0  0
   -5.3060   -0.5370   -0.3000 C   0  0  0  0  0  0  0  0  0  0  0  0
   -4.3540   -0.2110    0.6740 C   0  0  0  0  0  0  0  0  0  0  0  0
   -4.1310   -1.0540    1.7680 C   0  0  0  0  0  0  0  0  0  0  0  0
   -4.8890   -2.2340    1.8980 C   0  0  0  0  0  0  0  0  0  0  0  0
   -5.8800   -2.5250    0.9370 C   0  0  0  0  0  0  0  0  0  0  0  0
   -6.0840   -1.6850   -0.1560 C   0  0  0  0  0  0  0  0  0  0  0  0
   -7.2880   -2.1060   -1.3170 Cl  0  0  0  0  0  0  0  0  0  0  0  0
   -4.6910   -3.1910    3.0610 C   0  0  0  0  0  0  0  0  0  0  0  0
   -3.2160   -0.8120    2.7590 O   0  0  0  0  0  0  0  0  0  0  0  0
   -2.2880    0.2690    2.6130 C   0  0  0  0  0  0  0  0  0  0  0  0
   -1.1880   -0.0350    1.6190 C   0  0  0  0  0  0  0  0  0  0  0  0
   -0.6390   -1.3250    1.5270 C   0  0  0  0  0  0  0  0  0  0  0  0
    0.3770   -1.6060    0.6080 C   0  0  0  0  0  0  0  0  0  0  0  0
    0.8720   -0.5870   -0.2090 C   0  0  0  0  0  0  0  0  0  0  0  0
    0.3530    0.7040   -0.1070 C   0  0  0  0  0  0  0  0  0  0  0  0
   -0.6720    0.9780    0.8000 C   0  0  0  0  0  0  0  0  0  0  0  0
   -4.5190   -4.5830    2.6230 N   0  0  0  0  0  0  0  0  0  0  0  0
   -3.2530   -4.8160    1.9120 C   0  0  0  0  0  0  0  0  0  0  0  0
   -3.2270   -6.3390    1.8700 C   0  0  1  0  0  0  0  0  0  0  0  0
   -3.7190   -6.7490    3.2510 C   0  0  0  0  0  0  0  0  0  0  0  0
   -4.5180   -5.5410    3.7590 C   0  0  2  0  0  0  0  0  0  0  0  0
   -4.1470   -6.8210    0.8830 O   0  0  0  0  0  0  0  0  0  0  0  0
   -5.9390   -5.9320    4.1580 C   0  0  0  0  0  0  0  0  0  0  0  0
   -5.9620   -6.8790    5.1230 O   0  0  0  0  0  0  0  0  0  0  0  0
   -6.9910   -5.4630    3.7530 O   0  0  0  0  0  0  0  0  0  0  0  0
    0.8990   -2.9350    0.5000 C   0  0  0  0  0  0  0  0  0  0  0  0
    1.3100   -4.0150    0.4130 N   0  0  0  0  0  0  0  0  0  0  0  0
    0.1940    4.2130   -0.7660 H   0  0  0  0  0  0  0  0  0  0  0  0
   -1.2220    4.0110   -4.8350 H   0  0  0  0  0  0  0  0  0  0  0  0
    0.9610    4.8550   -5.6290 H   0  0  0  0  0  0  0  0  0  0  0  0
    4.7630    6.2890   -3.5490 H   0  0  0  0  0  0  0  0  0  0  0  0
    3.3270    7.1030   -2.8940 H   0  0  0  0  0  0  0  0  0  0  0  0
    4.4820    5.6730   -1.1550 H   0  0  0  0  0  0  0  0  0  0  0  0
    4.2290    4.2350   -2.1660 H   0  0  0  0  0  0  0  0  0  0  0  0
   -2.4250    5.5460   -1.4210 H   0  0  0  0  0  0  0  0  0  0  0  0
   -4.6670    4.9560   -0.6060 H   0  0  0  0  0  0  0  0  0  0  0  0
   -5.5680    2.7060   -0.9690 H   0  0  0  0  0  0  0  0  0  0  0  0
   -1.6660    0.2830   -2.6380 H   0  0  0  0  0  0  0  0  0  0  0  0
   -0.6330    1.5140   -3.3020 H   0  0  0  0  0  0  0  0  0  0  0  0
   -2.1070    1.0750   -4.1790 H   0  0  0  0  0  0  0  0  0  0  0  0
   -3.6420   -0.2350   -2.0300 H   0  0  0  0  0  0  0  0  0  0  0  0
   -4.7230    0.4960   -3.2160 H   0  0  0  0  0  0  0  0  0  0  0  0
   -3.8130    0.7200    0.5660 H   0  0  0  0  0  0  0  0  0  0  0  0
   -6.4820   -3.4260    1.0480 H   0  0  0  0  0  0  0  0  0  0  0  0
   -3.8440   -2.8960    3.6910 H   0  0  0  0  0  0  0  0  0  0  0  0
   -5.5860   -3.1020    3.6890 H   0  0  0  0  0  0  0  0  0  0  0  0
   -2.8120    1.2080    2.3970 H   0  0  0  0  0  0  0  0  0  0  0  0
   -1.8120    0.4070    3.5920 H   0  0  0  0  0  0  0  0  0  0  0  0
   -1.0230   -2.1180    2.1680 H   0  0  0  0  0  0  0  0  0  0  0  0
    1.6630   -0.7900   -0.9290 H   0  0  0  0  0  0  0  0  0  0  0  0
    0.7440    1.4960   -0.7410 H   0  0  0  0  0  0  0  0  0  0  0  0
   -1.0720    1.9900    0.8540 H   0  0  0  0  0  0  0  0  0  0  0  0
   -2.3930   -4.4260    2.4720 H   0  0  0  0  0  0  0  0  0  0  0  0
   -3.2700   -4.3860    0.9060 H   0  0  0  0  0  0  0  0  0  0  0  0
   -2.2370   -6.7440    1.6400 H   0  0  0  0  0  0  0  0  0  0  0  0
   -4.3050   -7.6740    3.2110 H   0  0  0  0  0  0  0  0  0  0  0  0
   -2.8560   -6.9090    3.9090 H   0  0  0  0  0  0  0  0  0  0  0  0
   -4.0220   -5.1070    4.6350 H   0  0  0  0  0  0  0  0  0  0  0  0
   -4.9470   -6.2650    0.9710 H   0  0  0  0  0  0  0  0  0  0  0  0
   -6.9180   -7.0320    5.2680 H   0  0  0  0  0  0  0  0  0  0  0  0
  1  2  2  0  0  0  0
  1  6  1  0  0  0  0
  1  7  1  0  0  0  0
  2  3  1  0  0  0  0
  2 10  1  0  0  0  0
  3  4  2  0  0  0  0
  3 47  1  0  0  0  0
  4  5  1  0  0  0  0
  4 11  1  0  0  0  0
  5  6  2  0  0  0  0
  5 48  1  0  0  0  0
  6 49  1  0  0  0  0
  7  8  1  0  0  0  0
  8  9  1  0  0  0  0
  8 50  1  0  0  0  0
  8 51  1  0  0  0  0
  9 10  1  0  0  0  0
  9 52  1  0  0  0  0
  9 53  1  0  0  0  0
 11 12  1  0  0  0  0
 11 16  2  0  0  0  0
 12 13  2  0  0  0  0
 12 54  1  0  0  0  0
 13 14  1  0  0  0  0
 13 55  1  0  0  0  0
 14 15  2  0  0  0  0
 14 56  1  0  0  0  0
 15 16  1  0  0  0  0
 15 18  1  0  0  0  0
 16 17  1  0  0  0  0
 17 57  1  0  0  0  0
 17 58  1  0  0  0  0
 17 59  1  0  0  0  0
 18 19  1  0  0  0  0
 18 60  1  0  0  0  0
 18 61  1  0  0  0  0
 19 20  1  0  0  0  0
 20 21  1  0  0  0  0
 20 25  2  0  0  0  0
 21 22  2  0  0  0  0
 21 62  1  0  0  0  0
 22 23  1  0  0  0  0
 22 28  1  0  0  0  0
 23 24  2  0  0  0  0
 23 27  1  0  0  0  0
 24 25  1  0  0  0  0
 24 63  1  0  0  0  0
 25 26  1  0  0  0  0
 27 36  1  0  0  0  0
 27 64  1  0  0  0  0
 27 65  1  0  0  0  0
 28 29  1  0  0  0  0
 29 30  1  0  0  0  0
 29 66  1  0  0  0  0
 29 67  1  0  0  0  0
 30 31  2  0  0  0  0
 30 35  1  0  0  0  0
 31 32  1  0  0  0  0
 31 68  1  0  0  0  0
 32 33  2  0  0  0  0
 32 45  1  0  0  0  0
 33 34  1  0  0  0  0
 33 69  1  0  0  0  0
 34 35  2  0  0  0  0
 34 70  1  0  0  0  0
 35 71  1  0  0  0  0
 36 37  1  0  0  0  0
 36 40  1  0  0  0  0
 37 38  1  0  0  0  0
 37 72  1  0  0  0  0
 37 73  1  0  0  0  0
 38 39  1  0  0  0  0
 38 41  1  0  0  0  0
 38 74  1  0  0  0  0
 39 40  1  0  0  0  0
 39 75  1  0  0  0  0
 39 76  1  0  0  0  0
 40 42  1  0  0  0  0
 40 77  1  0  0  0  0
 41 78  1  0  0  0  0
 42 43  1  0  0  0  0
 42 44  2  0  0  0  0
 43 79  1  0  0  0  0
 45 46  3  0  0  0  0
M  END
$$$$
PD1-PDL1.sdf
  MOE2019           3D

 72 75  0  0  1  0  0  0  0  0999 V2000
    1.9220    4.4460   -3.3050 C   0  0  0  0  0  0  0  0  0  0  0  0
    1.4340    4.7600   -2.0380 C   0  0  0  0  0  0  0  0  0  0  0  0
    0.0720    4.6340   -1.7620 C   0  0  0  0  0  0  0  0  0  0  0  0
   -0.8200    4.1880   -2.7510 C   0  0  0  0  0  0  0  0  0  0  0  0
   -0.3150    3.8900   -4.0250 C   0  0  0  0  0  0  0  0  0  0  0  0
    1.0470    4.0110   -4.2990 C   0  0  0  0  0  0  0  0  0  0  0  0
   -2.2490    4.0160   -2.4510 C   0  0  0  0  0  0  0  0  0  0  0  0
   -3.0870    5.1430   -2.5250 C   0  0  0  0  0  0  0  0  0  0  0  0
   -4.4510    5.0450   -2.2670 C   0  0  0  0  0  0  0  0  0  0  0  0
   -5.0070    3.8130   -1.9430 C   0  0  0  0  0  0  0  0  0  0  0  0
   -4.2080    2.6590   -1.8710 C   0  0  0  0  0  0  0  0  0  0  0  0
   -2.8090    2.7620   -2.0990 C   0  0  0  0  0  0  0  0  0  0  0  0
   -1.9430    1.5270   -2.0070 C   0  0  0  0  0  0  0  0  0  0  0  0
   -4.8740    1.3420   -1.5190 C   0  0  0  0  0  0  0  0  0  0  0  0
   -4.7400    1.0950   -0.0990 N   0  0  0  0  0  0  0  0  0  0  0  0
   -4.9750   -0.1150    0.5280 C   0  0  0  0  0  0  0  0  0  0  0  0
   -5.4780   -1.2280   -0.1660 C   0  0  0  0  0  0  0  0  0  0  0  0
   -5.6640   -2.4740    0.4530 C   0  0  0  0  0  0  0  0  0  0  0  0
   -5.3440   -2.6310    1.8080 C   0  0  0  0  0  0  0  0  0  0  0  0
   -4.8560   -1.5230    2.5170 C   0  0  0  0  0  0  0  0  0  0  0  0
   -4.6770   -0.2730    1.8980 C   0  0  0  0  0  0  0  0  0  0  0  0
   -4.1440    0.8650    2.7270 C   0  0  0  0  0  0  0  0  0  0  0  0
   -5.4580   -3.9670    2.5130 C   0  0  0  0  0  0  0  0  0  0  0  0
   -4.1330   -4.5820    2.6590 N   0  0  0  0  0  0  0  0  0  0  0  0
   -6.1390   -3.5920   -0.1750 O   0  0  0  0  0  0  0  0  0  0  0  0
   -6.4350   -3.5220   -1.5680 C   0  0  0  0  0  0  0  0  0  0  0  0
   -6.9140   -4.8850   -1.9810 C   0  0  0  0  0  0  0  0  0  0  0  0
   -6.0610   -5.9960   -1.9300 C   0  0  0  0  0  0  0  0  0  0  0  0
   -6.5490   -7.2600   -2.2520 C   0  0  0  0  0  0  0  0  0  0  0  0
   -7.8760   -7.3650   -2.6430 C   0  0  0  0  0  0  0  0  0  0  0  0
   -8.7230   -6.3130   -2.7240 N   0  0  0  0  0  0  0  0  0  0  0  0
   -8.2280   -5.1020   -2.3810 C   0  0  0  0  0  0  0  0  0  0  0  0
   -4.2400   -6.0010    3.1190 C   0  0  1  0  0  0  0  0  0  0  0  0
   -4.3970   -6.9380    1.9160 C   0  0  0  0  0  0  0  0  0  0  0  0
   -4.3010   -6.6230    0.7410 O   0  0  0  0  0  0  0  0  0  0  0  0
   -4.6940   -8.2060    2.2640 O   0  0  0  0  0  0  0  0  0  0  0  0
   -2.9690   -6.3800    3.8930 C   0  0  0  0  0  0  0  0  0  0  0  0
   -1.8210   -5.7200    3.3540 O   0  0  0  0  0  0  0  0  0  0  0  0
   -5.7240   -8.4220   -2.1680 C   0  0  0  0  0  0  0  0  0  0  0  0
   -5.0840   -9.3910   -2.1120 N   0  0  0  0  0  0  0  0  0  0  0  0
    2.9840    4.5320   -3.5130 H   0  0  0  0  0  0  0  0  0  0  0  0
    2.1180    5.0960   -1.2620 H   0  0  0  0  0  0  0  0  0  0  0  0
   -0.2970    4.8630   -0.7650 H   0  0  0  0  0  0  0  0  0  0  0  0
   -0.9880    3.5440   -4.8080 H   0  0  0  0  0  0  0  0  0  0  0  0
    1.4220    3.7590   -5.2870 H   0  0  0  0  0  0  0  0  0  0  0  0
   -2.6680    6.1110   -2.7930 H   0  0  0  0  0  0  0  0  0  0  0  0
   -5.0800    5.9280   -2.3290 H   0  0  0  0  0  0  0  0  0  0  0  0
   -6.0770    3.7520   -1.7470 H   0  0  0  0  0  0  0  0  0  0  0  0
   -0.8770    1.7570   -1.9140 H   0  0  0  0  0  0  0  0  0  0  0  0
   -2.1900    0.9400   -1.1170 H   0  0  0  0  0  0  0  0  0  0  0  0
   -2.0820    0.9080   -2.8980 H   0  0  0  0  0  0  0  0  0  0  0  0
   -4.4160    0.5440   -2.1160 H   0  0  0  0  0  0  0  0  0  0  0  0
   -5.9340    1.3710   -1.7950 H   0  0  0  0  0  0  0  0  0  0  0  0
   -4.4140    1.8760    0.4570 H   0  0  0  0  0  0  0  0  0  0  0  0
   -5.7180   -1.1130   -1.2150 H   0  0  0  0  0  0  0  0  0  0  0  0
   -4.5950   -1.6450    3.5670 H   0  0  0  0  0  0  0  0  0  0  0  0
   -4.8460    1.7050    2.7120 H   0  0  0  0  0  0  0  0  0  0  0  0
   -4.0050    0.5740    3.7760 H   0  0  0  0  0  0  0  0  0  0  0  0
   -3.1730    1.1900    2.3410 H   0  0  0  0  0  0  0  0  0  0  0  0
   -6.1480   -4.6270    1.9790 H   0  0  0  0  0  0  0  0  0  0  0  0
   -5.8970   -3.8030    3.5030 H   0  0  0  0  0  0  0  0  0  0  0  0
   -3.7210   -4.6130    1.7160 H   0  0  0  0  0  0  0  0  0  0  0  0
   -5.5390   -3.2690   -2.1500 H   0  0  0  0  0  0  0  0  0  0  0  0
   -7.2160   -2.7750   -1.7540 H   0  0  0  0  0  0  0  0  0  0  0  0
   -5.0260   -5.8710   -1.6120 H   0  0  0  0  0  0  0  0  0  0  0  0
   -8.3180   -8.3220   -2.9070 H   0  0  0  0  0  0  0  0  0  0  0  0
   -8.9490   -4.2900   -2.4320 H   0  0  0  0  0  0  0  0  0  0  0  0
   -5.1130   -6.1420    3.7690 H   0  0  0  0  0  0  0  0  0  0  0  0
   -4.7190   -8.6920    1.4110 H   0  0  0  0  0  0  0  0  0  0  0  0
   -3.0530   -6.0660    4.9370 H   0  0  0  0  0  0  0  0  0  0  0  0
   -2.7730   -7.4530    3.8730 H   0  0  0  0  0  0  0  0  0  0  0  0
   -2.1180   -4.7970    3.2040 H   0  0  0  0  0  0  0  0  0  0  0  0
  1  2  2  0  0  0  0
  1  6  1  0  0  0  0
  1 41  1  0  0  0  0
  2  3  1  0  0  0  0
  2 42  1  0  0  0  0
  3  4  2  0  0  0  0
  3 43  1  0  0  0  0
  4  5  1  0  0  0  0
  4  7  1  0  0  0  0
  5  6  2  0  0  0  0
  5 44  1  0  0  0  0
  6 45  1  0  0  0  0
  7  8  1  0  0  0  0
  7 12  2  0  0  0  0
  8  9  2  0  0  0  0
  8 46  1  0  0  0  0
  9 10  1  0  0  0  0
  9 47  1  0  0  0  0
 10 11  2  0  0  0  0
 10 48  1  0  0  0  0
 11 12  1  0  0  0  0
 11 14  1  0  0  0  0
 12 13  1  0  0  0  0
 13 49  1  0  0  0  0
 13 50  1  0  0  0  0
 13 51  1  0  0  0  0
 14 15  1  0  0  0  0
 14 52  1  0  0  0  0
 14 53  1  0  0  0  0
 15 16  1  0  0  0  0
 15 54  1  0  0  0  0
 16 17  1  0  0  0  0
 16 21  2  0  0  0  0
 17 18  2  0  0  0  0
 17 55  1  0  0  0  0
 18 19  1  0  0  0  0
 18 25  1  0  0  0  0
 19 20  2  0  0  0  0
 19 23  1  0  0  0  0
 20 21  1  0  0  0  0
 20 56  1  0  0  0  0
 21 22  1  0  0  0  0
 22 57  1  0  0  0  0
 22 58  1  0  0  0  0
 22 59  1  0  0  0  0
 23 24  1  0  0  0  0
 23 60  1  0  0  0  0
 23 61  1  0  0  0  0
 24 33  1  0  0  0  0
 24 62  1  0  0  0  0
 25 26  1  0  0  0  0
 26 27  1  0  0  0  0
 26 63  1  0  0  0  0
 26 64  1  0  0  0  0
 27 28  1  0  0  0  0
 27 32  2  0  0  0  0
 28 29  2  0  0  0  0
 28 65  1  0  0  0  0
 29 30  1  0  0  0  0
 29 39  1  0  0  0  0
 30 31  2  0  0  0  0
 30 66  1  0  0  0  0
 31 32  1  0  0  0  0
 32 67  1  0  0  0  0
 33 34  1  0  0  0  0
 33 37  1  0  0  0  0
 33 68  1  0  0  0  0
 34 35  2  0  0  0  0
 34 36  1  0  0  0  0
 36 69  1  0  0  0  0
 37 38  1  0  0  0  0
 37 70  1  0  0  0  0
 37 71  1  0  0  0  0
 38 72  1  0  0  0  0
 39 40  3  0  0  0  0
M  END
$$$$
