PD1-PDL1.sdf
  MOE2019           3D

 78 82  0  0  1  0  0  0  0  0999 V2000
    4.7010   -8.2830   -5.6380 C   0  0  0  0  0  0  0  0  0  0  0  0
    5.2660   -7.9560   -4.4020 C   0  0  0  0  0  0  0  0  0  0  0  0
    4.5120   -7.2740   -3.4460 C   0  0  0  0  0  0  0  0  0  0  0  0
    3.1950   -6.8790   -3.7240 C   0  0  0  0  0  0  0  0  0  0  0  0
    2.6540   -7.1900   -4.9830 C   0  0  0  0  0  0  0  0  0  0  0  0
    3.4010   -7.8870   -5.9350 C   0  0  0  0  0  0  0  0  0  0  0  0
    5.3670   -8.9880   -6.6060 O   0  0  0  0  0  0  0  0  0  0  0  0
    6.5190   -9.6450   -6.0670 C   0  0  0  0  0  0  0  0  0  0  0  0
    7.3160   -8.6910   -5.1960 C   0  0  0  0  0  0  0  0  0  0  0  0
    6.5520   -8.2860   -4.0550 O   0  0  0  0  0  0  0  0  0  0  0  0
    2.3820   -6.1720   -2.7200 C   0  0  0  0  0  0  0  0  0  0  0  0
    1.3540   -6.8910   -2.0820 C   0  0  0  0  0  0  0  0  0  0  0  0
    0.5480   -6.2960   -1.1180 C   0  0  0  0  0  0  0  0  0  0  0  0
    0.7540   -4.9660   -0.7720 C   0  0  0  0  0  0  0  0  0  0  0  0
    1.7620   -4.2060   -1.3920 C   0  0  0  0  0  0  0  0  0  0  0  0
    2.5830   -4.8070   -2.3810 C   0  0  0  0  0  0  0  0  0  0  0  0
    3.7040   -4.0210   -3.0220 C   0  0  0  0  0  0  0  0  0  0  0  0
    1.9220   -2.7580   -0.9720 C   0  0  0  0  0  0  0  0  0  0  0  0
    3.1780   -2.6010   -0.3150 O   0  0  0  0  0  0  0  0  0  0  0  0
    3.5000   -1.3560    0.1620 C   0  0  0  0  0  0  0  0  0  0  0  0
    2.8020   -0.1800   -0.1310 C   0  0  0  0  0  0  0  0  0  0  0  0
    3.2320    1.0500    0.3810 C   0  0  0  0  0  0  0  0  0  0  0  0
    4.3930    1.1230    1.1650 C   0  0  0  0  0  0  0  0  0  0  0  0
    5.0760   -0.0630    1.4750 C   0  0  0  0  0  0  0  0  0  0  0  0
    4.6380   -1.3010    0.9800 C   0  0  0  0  0  0  0  0  0  0  0  0
    5.3950   -2.5550    1.3260 C   0  0  0  0  0  0  0  0  0  0  0  0
    4.9030    2.4340    1.6990 C   0  0  0  0  0  0  0  0  0  0  0  0
    4.4840    2.7600    3.0700 N   0  3  0  0  0  0  0  0  0  0  0  0
    2.6060    2.2420    0.1230 O   0  0  0  0  0  0  0  0  0  0  0  0
    1.1910    2.1820   -0.1050 C   0  0  0  0  0  0  0  0  0  0  0  0
    0.6460    3.5780    0.0780 C   0  0  0  0  0  0  0  0  0  0  0  0
    1.0530    4.6200   -0.7700 C   0  0  0  0  0  0  0  0  0  0  0  0
    0.5620    5.9170   -0.5870 C   0  0  0  0  0  0  0  0  0  0  0  0
   -0.3440    6.1810    0.4460 C   0  0  0  0  0  0  0  0  0  0  0  0
   -0.7510    5.1510    1.2940 C   0  0  0  0  0  0  0  0  0  0  0  0
   -0.2590    3.8570    1.1100 C   0  0  0  0  0  0  0  0  0  0  0  0
    3.0170    3.1860    3.2450 C   0  0  1  0  0  0  0  0  0  0  0  0
    2.1690    2.0440    3.8490 C   0  0  0  0  0  0  0  0  0  0  0  0
    2.9930    4.2960    4.2970 C   0  0  0  0  0  0  0  0  0  0  0  0
    4.2090    5.0680    4.1810 O   0  0  0  0  0  0  0  0  0  0  0  0
    2.9180    1.1570    4.3720 O   0  5  0  0  0  0  0  0  0  0  0  0
    0.9240    2.1330    3.7350 O   0  0  0  0  0  0  0  0  0  0  0  0
    1.0000    6.9780   -1.4470 C   0  0  0  0  0  0  0  0  0  0  0  0
    1.3710    7.8350   -2.1360 N   0  0  0  0  0  0  0  0  0  0  0  0
    4.9540   -7.0490   -2.4790 H   0  0  0  0  0  0  0  0  0  0  0  0
    1.6350   -6.8920   -5.2240 H   0  0  0  0  0  0  0  0  0  0  0  0
    2.9650   -8.1270   -6.9000 H   0  0  0  0  0  0  0  0  0  0  0  0
    6.1880  -10.5240   -5.5010 H   0  0  0  0  0  0  0  0  0  0  0  0
    7.1250   -9.9910   -6.9080 H   0  0  0  0  0  0  0  0  0  0  0  0
    7.6120   -7.7940   -5.7520 H   0  0  0  0  0  0  0  0  0  0  0  0
    8.2260   -9.1810   -4.8300 H   0  0  0  0  0  0  0  0  0  0  0  0
    1.1890   -7.9390   -2.3330 H   0  0  0  0  0  0  0  0  0  0  0  0
   -0.2350   -6.8730   -0.6330 H   0  0  0  0  0  0  0  0  0  0  0  0
    0.1210   -4.5230   -0.0060 H   0  0  0  0  0  0  0  0  0  0  0  0
    3.4460   -2.9640   -3.1340 H   0  0  0  0  0  0  0  0  0  0  0  0
    4.6080   -4.1060   -2.4130 H   0  0  0  0  0  0  0  0  0  0  0  0
    3.9290   -4.3720   -4.0310 H   0  0  0  0  0  0  0  0  0  0  0  0
    1.8510   -2.1280   -1.8660 H   0  0  0  0  0  0  0  0  0  0  0  0
    1.1140   -2.4720   -0.2860 H   0  0  0  0  0  0  0  0  0  0  0  0
    1.9300   -0.2100   -0.7680 H   0  0  0  0  0  0  0  0  0  0  0  0
    5.9580   -0.0300    2.1130 H   0  0  0  0  0  0  0  0  0  0  0  0
    5.8410   -2.9900    0.4250 H   0  0  0  0  0  0  0  0  0  0  0  0
    4.7250   -3.2890    1.7890 H   0  0  0  0  0  0  0  0  0  0  0  0
    6.2040   -2.3530    2.0420 H   0  0  0  0  0  0  0  0  0  0  0  0
    5.9980    2.4050    1.7240 H   0  0  0  0  0  0  0  0  0  0  0  0
    4.6450    3.2820    1.0560 H   0  0  0  0  0  0  0  0  0  0  0  0
    4.5150    1.9130    3.6820 H   0  0  0  0  0  0  0  0  0  0  0  0
    5.0410    3.5090    3.5050 H   0  0  0  0  0  0  0  0  0  0  0  0
    0.9880    1.8530   -1.1340 H   0  0  0  0  0  0  0  0  0  0  0  0
    0.7070    1.4920    0.6000 H   0  0  0  0  0  0  0  0  0  0  0  0
    1.7630    4.4150   -1.5700 H   0  0  0  0  0  0  0  0  0  0  0  0
   -0.7310    7.1870    0.6000 H   0  0  0  0  0  0  0  0  0  0  0  0
   -1.4510    5.3510    2.1050 H   0  0  0  0  0  0  0  0  0  0  0  0
   -0.5780    3.0710    1.7970 H   0  0  0  0  0  0  0  0  0  0  0  0
    2.6620    3.5560    2.2830 H   0  0  0  0  0  0  0  0  0  0  0  0
    2.1380    4.9610    4.1300 H   0  0  0  0  0  0  0  0  0  0  0  0
    2.9450    3.9170    5.3250 H   0  0  0  0  0  0  0  0  0  0  0  0
    4.0370    5.9030    4.6640 H   0  0  0  0  0  0  0  0  0  0  0  0
  1  2  2  0  0  0  0
  1  6  1  0  0  0  0
  1  7  1  0  0  0  0
  2  3  1  0  0  0  0
  2 10  1  0  0  0  0
  3  4  2  0  0  0  0
  3 45  1  0  0  0  0
  4  5  1  0  0  0  0
  4 11  1  0  0  0  0
  5  6  2  0  0  0  0
  5 46  1  0  0  0  0
  6 47  1  0  0  0  0
  7  8  1  0  0  0  0
  8  9  1  0  0  0  0
  8 48  1  0  0  0  0
  8 49  1  0  0  0  0
  9 10  1  0  0  0  0
  9 50  1  0  0  0  0
  9 51  1  0  0  0  0
 11 12  1  0  0  0  0
 11 16  2  0  0  0  0
 12 13  2  0  0  0  0
 12 52  1  0  0  0  0
 13 14  1  0  0  0  0
 13 53  1  0  0  0  0
 14 15  2  0  0  0  0
 14 54  1  0  0  0  0
 15 16  1  0  0  0  0
 15 18  1  0  0  0  0
 16 17  1  0  0  0  0
 17 55  1  0  0  0  0
 17 56  1  0  0  0  0
 17 57  1  0  0  0  0
 18 19  1  0  0  0  0
 18 58  1  0  0  0  0
 18 59  1  0  0  0  0
 19 20  1  0  0  0  0
 20 21  1  0  0  0  0
 20 25  2  0  0  0  0
 21 22  2  0  0  0  0
 21 60  1  0  0  0  0
 22 23  1  0  0  0  0
 22 29  1  0  0  0  0
 23 24  2  0  0  0  0
 23 27  1  0  0  0  0
 24 25  1  0  0  0  0
 24 61  1  0  0  0  0
 25 26  1  0  0  0  0
 26 62  1  0  0  0  0
 26 63  1  0  0  0  0
 26 64  1  0  0  0  0
 27 28  1  0  0  0  0
 27 65  1  0  0  0  0
 27 66  1  0  0  0  0
 28 37  1  0  0  0  0
 28 67  1  0  0  0  0
 28 68  1  0  0  0  0
 29 30  1  0  0  0  0
 30 31  1  0  0  0  0
 30 69  1  0  0  0  0
 30 70  1  0  0  0  0
 31 32  2  0  0  0  0
 31 36  1  0  0  0  0
 32 33  1  0  0  0  0
 32 71  1  0  0  0  0
 33 34  2  0  0  0  0
 33 43  1  0  0  0  0
 34 35  1  0  0  0  0
 34 72  1  0  0  0  0
 35 36  2  0  0  0  0
 35 73  1  0  0  0  0
 36 74  1  0  0  0  0
 37 38  1  0  0  0  0
 37 39  1  0  0  0  0
 37 75  1  0  0  0  0
 38 41  1  0  0  0  0
 38 42  2  0  0  0  0
 39 40  1  0  0  0  0
 39 76  1  0  0  0  0
 39 77  1  0  0  0  0
 40 78  1  0  0  0  0
 43 44  3  0  0  0  0
M  CHG  1  28   1
M  CHG  1  41  -1
M  END
$$$$
